data/state_estimation/SE_PT2030_Su/state_estimation_PT2030_Su_t16.csv
bus,vm_pu,va_degree,p_mw,q_mvar
1,1.034671,0.115297,-0.840524,-32.993036
2,1.038279,0.222286,-0.840086,-44.643410
3,1.044997,0.138684,-0.821940,-24.889908
4,1.039959,-0.045909,-0.776737,-43.421296
5,1.022900,0.208443,71.687289,-27.066584
6,1.024276,0.196169,-0.802962,-6.656277
7,1.038571,-0.066491,-0.674073,46.893526
8,1.004545,0.038537,-0.797711,-0.017886
9,1.026503,-0.080563,-0.768014,0.048984
10,1.042023,-0.058293,105.810235,0.043949
11,1.018587,-0.093734,-4.849498,-0.175744
12,1.012828,-0.093250,-0.786345,0.055885
13,1.024165,-0.085086,-8.136015,-1.587613
14,1.027754,-0.076808,-0.774031,0.049292
15,1.041133,-0.052275,-0.762833,-0.041335
16,1.008440,0.164016,-0.834373,-0.050548
17,1.025164,0.081129,-0.752156,0.009254
18,1.017667,0.028027,-0.800458,0.035192
19,1.016314,-0.120347,-0.779811,-0.007801
20,1.017580,-0.096399,-0.809426,-0.036330
21,1.025358,0.077399,-0.678647,-0.005902
22,1.033948,-0.058716,92.853524,5.533668
23,1.005375,-0.113431,-0.797335,0.052320
24,1.024400,0.170860,-0.836839,0.024985
25,1.018772,0.049845,-0.822679,0.012411
26,1.040859,-0.057113,-4.775441,-0.127996
27,1.034102,-0.068522,-4.822602,-0.103360
28,1.029605,-0.067352,-3.739513,0.432018
29,1.022823,-0.072815,-0.802338,0.094337
30,1.036599,0.079688,30.311763,44.370519
31,1.020511,0.190803,-0.905098,-0.045899
32,1.029806,0.076260,-0.847455,-0.033473
33,1.037808,0.083327,-0.769996,0.002431
34,1.021536,-0.076694,-0.809650,0.064177
35,1.005617,0.107230,-0.798338,-0.007241
36,1.014803,0.037874,-0.774323,0.070406
37,1.024458,-0.051869,-0.859181,-0.026792
38,1.021441,0.092186,-0.814333,-0.033262
39,1.020677,0.095750,-0.872613,0.005388
40,1.025399,0.195903,-0.705744,-0.004987
41,1.020145,0.083786,-0.863831,-0.043510
42,1.019745,0.153620,-0.826265,0.068136
43,1.020955,-0.058824,-0.767063,-0.029573
44,1.019447,0.093416,-0.874990,0.128586
45,1.023697,0.008679,-0.771106,-0.009250
46,1.026291,-0.022245,-0.856931,-0.028574
47,1.022885,0.141432,-0.835705,0.024413
48,1.017927,0.087892,-0.845063,0.005854
49,1.024683,0.099387,-0.779819,-0.037737
50,1.024077,-0.048985,-34.937935,0.011902
51,1.024503,0.157422,-0.890008,0.031915
52,1.023321,0.048721,-0.764144,0.018531
53,1.020765,0.078689,-0.820831,-0.029771
54,1.031140,0.291511,-0.806402,-0.038740
55,1.021779,-0.060031,-0.855620,0.046180
56,1.023919,-0.061607,-0.828170,0.010237
57,1.023926,0.100966,-0.883655,0.018988
58,1.020616,-0.063256,-0.802660,0.051931
59,1.024068,-0.054502,-0.755499,-0.053483
60,1.022920,0.113907,-0.721563,-0.055069
61,1.024485,0.142213,89.194805,-3.706900
62,1.022149,0.201616,-0.836979,0.081305
63,1.030201,0.264670,-0.831023,-0.011190
64,1.018241,-0.006727,-0.879627,-0.035246
65,1.024057,0.179369,-0.807056,0.081885
66,1.021349,0.122569,-0.775905,0.077764
67,1.022973,0.109157,-3.126204,0.795873
68,1.020436,0.079723,-0.750630,-0.053184
69,1.021184,0.098066,-0.803460,-0.070187
70,1.022910,0.126308,-0.972638,0.015152
71,1.020972,0.094035,-0.787252,0.055613
72,1.016976,0.195528,-0.819095,-0.041504
73,1.025917,0.240438,-0.814320,-0.042265
74,1.022184,-0.012796,-0.759037,0.055051
75,1.021794,0.207155,-0.798960,-0.142120
76,1.021150,-0.061242,-0.857990,-0.091507
77,1.026122,0.258906,-0.677576,0.037973
78,1.018150,0.128404,-0.746130,-0.058585
79,1.025454,0.216754,-0.775972,0.003436
80,1.044386,-0.045259,-0.779986,0.010568
81,1.033602,0.094621,-0.815428,0.010125
82,1.041334,-0.016358,-0.761506,0.053117
83,1.041929,0.078918,-0.822423,0.034240
84,1.040650,-0.038179,-0.755140,0.050885
85,1.037323,0.046381,-0.813512,-0.023877
86,1.043018,-0.041852,-0.771820,-0.018321
87,1.045674,-0.034915,-0.832779,0.045043
88,1.033943,0.099975,-0.877277,-0.009304
89,1.041041,-0.022117,-0.885544,0.049937
90,1.034407,0.150190,-0.790114,-0.078213
91,1.029697,0.101638,-0.780713,0.003157
92,1.030327,0.092779,-0.702003,0.001062
93,1.033694,0.099027,-0.865986,0.003418
94,1.034734,0.096011,-0.785753,-0.018021
95,1.042468,0.088883,-0.886891,-0.030918
96,1.034760,0.114835,-0.788754,0.041492
97,1.042727,-0.038975,-0.821393,-0.000238
98,1.045044,0.139353,-0.762351,0.037643
99,1.048635,0.127271,-0.811167,0.041258
100,1.042767,0.000155,-0.755599,-0.014653
101,1.035874,0.099467,-0.725941,0.053447
102,1.029439,-0.055793,-0.854781,0.019681
103,1.037396,0.128338,-0.854298,-0.055343
104,1.029598,0.101166,-0.813807,-0.023403
105,1.043264,-0.047629,-0.853896,-0.048876
106,1.038039,0.221949,-0.799857,-0.000413
107,1.030984,-0.065861,-0.814761,-0.097339
108,1.010806,0.064996,-9.732032,-6.171252
109,1.013978,-0.026107,-212.790265,-28.463619
110,1.024472,-0.106862,-186.306564,-8.778354
111,1.020229,0.047134,-136.741981,-15.263339
112,1.022852,-0.101846,-97.509233,-12.810402
113,1.028973,-0.106724,-107.632880,-8.448120
114,1.021948,0.095929,-1.137812,-9.460841
115,1.007559,0.186850,-27.157739,19.919689
116,1.010042,0.018153,-305.375278,-47.010485
117,1.011722,-0.118292,-49.979819,-12.528862
118,1.014100,0.161257,24.248291,-17.993480
119,1.030520,-0.063292,-169.328707,-52.613886
120,1.018447,0.051770,-184.319338,3.974017
121,1.005772,-0.133505,-162.825412,-35.552887
122,1.028976,0.055354,-85.061808,-44.251481
123,1.021488,-0.120722,-152.359117,-31.884746
124,1.025738,-0.031446,-128.011392,9.619771
125,1.022450,-0.059999,-130.220514,-24.860277
126,1.031015,-0.072440,-107.809011,-12.157576
127,1.020501,0.145865,15.592952,4.415610
128,1.027539,0.065846,-107.778570,-31.877163
129,1.021912,0.026774,-201.337094,-9.776958
130,1.013305,0.041212,-264.784897,-57.791758
131,1.025638,-0.070475,-163.492493,-28.803787
132,1.011634,0.038684,-30.307197,-5.140476
133,1.008647,-0.026080,-187.869624,35.527289
134,1.021662,0.025764,-167.548096,12.731881
135,1.022019,-0.100593,-186.801210,-28.461349
136,1.022918,-0.121849,-213.783123,-39.687683
137,1.018208,0.027067,-149.079608,-9.236222
138,1.018327,0.080446,-124.833758,-21.847249
139,1.021439,-0.129298,-234.857388,-0.793026
140,1.020590,-0.165950,-81.978050,-9.484533
141,1.015578,-0.141647,-95.927399,-18.503946
142,1.021629,0.015048,-129.817511,-9.333350
143,1.008685,-0.102035,-89.602057,-17.031907
144,1.018167,0.079877,-71.757547,1.306187
145,1.025233,0.060761,-189.160827,56.136269
146,1.015163,-0.060143,-2.787518,-5.906257
147,1.023478,-0.091373,-58.324952,-12.160400
148,1.006846,0.201953,-0.803205,-0.065309
149,1.001975,-0.174292,-199.797221,-36.102776
150,1.017559,0.145016,-34.835456,-3.681370
151,1.018143,-0.014928,-211.657749,-32.284767
152,1.016510,0.175018,-71.214411,-3.747154
153,1.020953,0.256891,-8.126013,3.342141
154,1.012514,-0.051808,-101.065191,-15.804782
155,1.015400,0.195351,47.242828,-3.187727
156,1.017122,0.111504,-25.503350,7.043166
157,1.014332,0.020908,-114.209012,-6.408949
158,1.022843,0.083853,-36.415542,-9.512513
159,1.021300,-0.048551,53.671151,12.587678
160,1.025115,0.139807,26.747081,1.780394
161,1.017130,0.149686,117.164160,12.151982
162,1.013238,0.201887,19.559581,1.877915
163,1.024946,0.073401,-24.851242,-0.177413
164,1.025727,-0.053279,-16.038147,-1.282528
165,1.007235,0.254653,50.506998,-8.443291
166,1.015355,0.015511,57.599139,-21.611730
167,1.007913,0.199164,-26.026797,17.520091
168,1.023169,-0.076062,-136.160152,-47.800330
169,1.023277,-0.028606,101.556516,28.449536
170,1.015149,0.115237,-28.768372,14.021689
171,1.006895,0.067923,-52.042093,-10.066649
172,1.006549,0.202843,-28.731816,2.129371
173,1.037380,0.087152,71.147928,-11.785674
174,1.036892,0.086337,20.135762,-2.815948
175,1.007722,0.077203,53.160802,-15.138365
176,1.007132,0.064626,21.128404,-1.459784
177,1.042782,0.082892,-0.824124,15.682296
178,1.007207,0.174709,28.147753,-8.943508
179,1.038849,0.083447,30.413131,14.381770
180,1.025478,-0.083979,-0.818649,-0.006745
181,1.028401,0.179710,65.198751,8.097094
182,1.038638,0.083868,-0.841320,33.239118
183,1.045652,-0.035560,117.229327,16.517633
184,1.033890,0.081139,-0.840711,-0.012631
185,1.029960,-0.073718,-0.806348,-0.079959
186,1.023383,-0.102259,-0.813952,0.083049
187,1.016233,0.038528,25.747660,10.243632
188,1.014812,0.037825,25.705176,7.092381
189,1.015690,0.038205,25.721901,7.145589
190,1.019874,0.084009,-0.777776,0.021585
191,1.033413,0.303168,183.727823,-14.937945
192,1.029689,0.279683,119.218248,-0.437269
193,1.025389,0.103888,-0.866090,0.048268
194,1.027275,0.186160,119.164407,-1.842266
195,1.018900,0.101707,-0.780210,-11.107825
196,1.025072,0.197076,92.250045,-31.954952
197,1.024445,0.156156,-0.789264,-0.014790
198,1.026754,0.196178,-0.851092,5.657450
199,1.022320,0.048533,-0.808739,0.063663
200,1.032480,0.291071,31.635823,-0.836959
201,1.031258,0.292608,31.721489,-0.770003
202,1.031760,0.291970,31.721590,-0.762764
203,1.031383,0.292849,121.642357,-13.108405
204,1.021792,-0.058319,-0.796769,-0.027052
205,1.021865,-0.058661,-0.730779,-0.042994
206,1.022476,0.113994,34.170920,-2.596466
207,1.023156,0.113353,34.106181,-2.268539
208,1.021579,0.091606,-0.802089,-0.017764
209,1.022127,0.094165,-0.872026,0.014164
210,1.022808,0.090823,-0.754421,-0.048416
211,1.022120,0.095879,-0.815593,-0.018295
212,1.023459,0.220242,-0.805493,-0.055781
213,1.024357,-0.052400,-0.860999,0.056197
214,1.023840,-0.051582,-0.788994,-0.053211
215,1.024386,-0.051156,-0.888983,-0.058900
216,1.025234,-0.052118,-0.780974,-0.072760
217,1.024708,-0.053072,-0.780246,0.028813
218,1.022637,0.123820,99.650199,-13.289816
219,1.020991,-0.061406,-0.789053,-0.017360
220,1.027886,0.110339,593.163998,209.574497
221,1.027070,0.108280,-0.692584,0.016263
222,1.025787,-0.020461,234.437522,125.297005
223,1.018580,0.148127,-0.773658,-0.072378
224,1.023182,0.146127,-0.805761,-0.013746
225,1.038984,0.225497,94.673081,-5.713386
226,1.045643,-0.035043,-0.695755,0.009231
227,1.043017,-0.046540,-0.833536,-14.533270
228,1.042316,-0.046458,-0.790234,-22.147886
229,1.029515,0.101771,-0.751671,-38.420296
230,1.030119,0.101389,-0.875414,-8.187612
231,1.035635,0.150874,-0.824527,-0.544951
232,1.034491,0.115624,156.692832,-3.243817
233,1.034386,0.115520,156.609770,-3.647763
234,1.046176,-0.032732,117.289012,-4.001413
235,1.045889,-0.032607,117.186062,-3.843934
236,1.046569,-0.033118,117.232903,-3.758808
237,1.047735,0.125803,114.395148,13.262642
238,1.047682,0.125771,114.350782,13.287629
239,1.043250,0.000796,234.422453,-25.942750
240,1.043036,-0.000968,234.456169,15.795988
241,1.042774,0.094986,246.978061,-9.877546
242,1.042908,0.095214,247.069156,-14.205207
243,1.047748,0.124850,250.313028,17.674033
244,1.048857,0.126236,250.171356,13.179526
245,1.025600,-0.071471,-35.629822,-9.356460
246,1.025349,-0.083916,-22.742950,-5.941209
247,1.022254,-0.102467,-4.882917,0.775582
248,1.021757,0.180352,-3.210784,1.626285
249,1.026237,-0.082325,-7.744621,-0.674388
250,1.040847,-0.052248,-14.466010,-6.372712
251,1.030141,0.115759,102.179783,-1.088919
252,1.027709,0.224940,84.898373,-9.844260
253,1.023230,0.227350,66.030812,-6.102995
254,1.034878,0.129817,111.958496,-10.685427
255,1.042568,-0.056017,-30.982014,15.910758
256,1.019128,0.082764,-99.573465,-15.964542
257,1.022347,0.165223,-4.180929,1.447864
258,1.019913,0.104238,-3.735391,1.357223
259,1.023117,0.189147,-3.758899,2.085203
260,1.001251,-0.078772,-122.819703,-26.620387
261,1.020472,0.198732,-1.959541,1.526468
262,1.020217,0.157028,81.166614,-7.523347
263,1.023529,0.228062,75.275899,-12.832056
264,1.022595,0.149632,123.306405,-17.349603
265,1.018947,0.148303,94.828335,-11.863835
266,1.023380,0.220623,104.530829,-1.902257
267,1.021866,0.207392,154.422098,-55.261738
268,1.033885,0.155009,141.089750,-1.188307
269,1.007079,0.201784,-0.742256,-0.001015
270,1.007745,0.201963,-0.865645,0.038351
271,1.007462,0.211962,-0.784558,-0.011822
272,1.005572,0.238721,-0.799513,0.005636
273,1.015852,0.045080,29.156959,1.584793
274,1.015313,0.043716,-0.798167,-0.050689
275,1.015302,0.042066,-0.751579,0.017594
276,1.013455,0.027860,-0.731260,0.055478
277,1.011348,0.025946,-0.754418,-0.020273
278,1.012149,0.023177,-0.872514,-0.015796
279,1.012522,0.018707,-0.730698,0.005566
280,1.013724,0.041922,-0.879746,0.064106
281,1.014340,0.043130,-0.778311,0.009518
282,1.015800,0.044041,-0.779639,0.010521
283,1.010930,0.038536,-0.807128,-0.028125
284,1.020237,0.054753,-0.876191,-0.065662
285,1.021361,0.055239,-0.835935,0.025350
286,1.024283,0.060834,-0.789109,-0.054555
287,1.009156,-0.022430,-0.880420,-0.054328
288,1.009514,-0.023389,-0.682609,0.030965
289,1.010316,-0.015489,-0.793043,-0.037095
290,1.011783,-0.009273,-0.775131,0.012350
291,1.012459,-0.009349,-0.760435,-0.033125
292,1.012478,-0.008421,-0.756723,-0.001414
293,1.013580,0.006014,24.207412,-7.378497
294,1.007580,0.199921,-0.788727,0.120608
295,1.007469,0.199327,-0.740935,0.130852
296,1.007204,0.199466,-0.772901,-0.031903
297,1.007281,0.198432,-0.826176,-0.003513
298,1.007035,0.238365,-0.810611,-0.066647
299,1.006986,0.238236,-0.820451,-0.075078
300,1.006610,0.238287,-0.732847,-0.026266
301,1.005566,0.226911,-0.752878,0.037520
302,1.007128,0.216497,-0.701929,0.000129
303,1.006250,0.208058,-0.845286,0.060505
304,1.005216,0.206913,-0.824902,-0.008949
